STAAD SPACE
START JOB INFORMATION
ENGINEER DATE 15-Feb-26
END JOB INFORMATION
INPUT WIDTH 79
UNIT METER KN
JOINT COORDINATES
1 -12.5 0 0; 2 12.5 0 0; 3 -12.5 0 6; 4 12.5 0 6; 5 0 0 8; 6 -12.5 5 0;
7 12.5 5 0; 8 -12.5 5 6; 9 12.5 5 6; 10 0 5 8; 11 -12.5 10 0; 12 12.5 10 0;
13 -12.5 10 6; 14 12.5 10 6; 15 0 10 8; 16 -12.5 15 0; 17 12.5 15 0;
18 -12.5 15 6; 19 12.5 15 6; 20 0 15 8; 21 -12.5 20 0; 22 12.5 20 0;
23 -12.5 20 6; 24 12.5 20 6; 25 0 20 8; 26 -12.5 25 0; 27 12.5 25 0;
28 -12.5 25 6; 29 12.5 25 6; 30 0 25 8; 31 -12.5 30 0; 32 12.5 30 0;
33 -12.5 30 6; 34 12.5 30 6; 35 0 30 8; 36 -12.5 35 0; 37 12.5 35 0;
38 -12.5 35 6; 39 12.5 35 6; 40 0 35 8; 41 -12.5 40 0; 42 12.5 40 0;
43 -12.5 40 6; 44 12.5 40 6; 45 0 40 8; 46 -12.5 45 0; 47 12.5 45 0;
48 -12.5 45 6; 49 12.5 45 6; 50 0 45 8; 51 -12.5 50 0; 52 12.5 50 0;
53 -12.5 50 6; 54 12.5 50 6; 55 0 50 8; 56 -12.5 55 0; 57 12.5 55 0;
58 -12.5 55 6; 59 12.5 55 6; 60 0 55 8; 61 -12.5 60 0; 62 12.5 60 0;
63 -12.5 60 6; 64 12.5 60 6; 65 0 60 8; 66 -8.33333 0 6.66667;
67 8.33333 0 6.66667; 68 -4.16667 0 7.33333; 69 4.16667 0 7.33333;
70 -8.33333 5 6.66667; 71 8.33333 5 6.66667; 72 -4.16667 5 7.33333;
73 4.16667 5 7.33333; 74 -8.33333 10 6.66667; 75 8.33333 10 6.66667;
76 -4.16667 10 7.33333; 77 4.16667 10 7.33333; 78 -8.33333 15 6.66667;
79 8.33333 15 6.66667; 80 -4.16667 15 7.33333; 81 4.16667 15 7.33333;
82 -8.33333 20 6.66667; 83 8.33333 20 6.66667; 84 -4.16667 20 7.33333;
85 4.16667 20 7.33333; 86 -8.33333 25 6.66667; 87 8.33333 25 6.66667;
# ... 10 like lines cut
MEMBER INCIDENCES
1 1 3; 2 2 4; 3 3 5; 4 4 5; 5 6 8; 6 7 9; 7 8 10; 8 9 10; 9 11 13; 10 12 14;
11 13 15; 12 14 15; 13 16 18; 14 17 19; 15 18 20; 16 19 20; 17 21 23; 18 22 24;
19 23 25; 20 24 25; 21 26 28; 22 27 29; 23 28 30; 24 29 30; 25 31 33; 26 32 34;
27 33 35; 28 34 35; 29 36 38; 30 37 39; 31 38 40; 32 39 40; 33 41 43; 34 42 44;
35 43 45; 36 44 45; 37 46 48; 38 47 49; 39 48 50; 40 49 50; 41 51 53; 42 52 54;
43 53 55; 44 54 55; 45 56 58; 46 57 59; 47 58 60; 48 59 60; 49 61 63; 50 62 64;
51 63 65; 52 64 65; 53 3 8; 54 4 9; 55 5 10; 56 66 70; 57 67 71; 58 68 72;
59 69 73; 60 8 13; 61 9 14; 62 10 15; 63 70 74; 64 71 75; 65 72 76; 66 73 77;
67 13 18; 68 14 19; 69 15 20; 70 74 78; 71 75 79; 72 76 80; 73 77 81; 74 18 23;
75 19 24; 76 20 25; 77 78 82; 78 79 83; 79 80 84; 80 81 85; 81 23 28; 82 24 29;
83 25 30; 84 82 86; 85 83 87; 86 84 88; 87 85 89; 88 28 33; 89 29 34; 90 30 35;
91 86 90; 92 87 91; 93 88 92; 94 89 93; 95 33 38; 96 34 39; 97 35 40; 98 90 94;
99 91 95; 100 92 96; 101 93 97; 102 38 43; 103 39 44; 104 40 45; 105 94 98;
106 95 99; 107 96 100; 108 97 101; 109 43 48; 110 44 49; 111 45 50; 112 98 102;
113 99 103; 114 100 104; 115 101 105; 116 48 53; 117 49 54; 118 50 55;
119 102 106; 120 103 107; 121 104 108; 122 105 109; 123 53 58; 124 54 59;
125 55 60; 126 106 110; 127 107 111; 128 108 112; 129 109 113; 130 58 63;
131 59 64; 132 60 65; 133 110 114; 134 111 115; 135 112 116; 136 113 117;
MEMBER PROPERTY AMERICAN
1 2 5 6 9 10 13 14 17 18 21 22 25 26 29 30 33 34 37 38 41 42 45 46 49 -
50 TABLE ST W14X90
3 4 7 8 11 12 15 16 19 20 23 24 27 28 31 32 35 36 39 40 43 44 47 48 51 -
52 TABLE ST W18X35
DEFINE MATERIAL START
ISOTROPIC STEEL
E 2.05e+08
POISSON 0.3
DENSITY 76.8195
ALPHA 1.2e-05
DAMP 0.03
G 7.88462e+07
TYPE STEEL
STRENGTH FY 250000 FU 400000 RY 1.5 RT 1.2
END DEFINE MATERIAL
CONSTANTS
MATERIAL STEEL ALL
SUPPORTS
1 PINNED
LOAD 1 LOADTYPE Dead  TITLE DL + ROOF
SELFWEIGHT Y -1 LIST ALL
MEMBER LOAD
3 UNI Z -1.5
4 UNI Z -1.5
7 UNI Z -1.5
8 UNI Z -1.5
11 UNI Z -1.5
12 UNI Z -1.5
15 UNI Z -1.5
16 UNI Z -1.5
19 UNI Z -1.5
20 UNI Z -1.5
23 UNI Z -1.5
24 UNI Z -1.5
27 UNI Z -1.5
28 UNI Z -1.5
31 UNI Z -1.5
32 UNI Z -1.5
35 UNI Z -1.5
36 UNI Z -1.5
39 UNI Z -1.5
40 UNI Z -1.5
# ... 6 like lines cut
LOAD 2 LOADTYPE Wind  TITLE WIND +X
MEMBER LOAD
1 UNI GX 0.8
2 UNI GX 0.8
5 UNI GX 0.8
6 UNI GX 0.8
9 UNI GX 0.8
10 UNI GX 0.8
13 UNI GX 0.8
14 UNI GX 0.8
17 UNI GX 0.8
18 UNI GX 0.8
21 UNI GX 0.8
22 UNI GX 0.8
25 UNI GX 0.8
26 UNI GX 0.8
29 UNI GX 0.8
30 UNI GX 0.8
33 UNI GX 0.8
34 UNI GX 0.8
37 UNI GX 0.8
38 UNI GX 0.8
# ... 6 like lines cut
LOAD COMB 3 1.0DL + 1.0WIND
1 1.0 2 1.0 
PERFORM ANALYSIS
FINISH
